miqcp/testcases/nesta_case73_ieee_rts__sad.m
%%%%%%%%%%%%%%%%%%%%%%%%%%%%%%%%%%%%%%%%%%%%%%%%%%%%%%%%%%%%%%%%%%%%%%%%%%%
%%%%                                                                  %%%%%
%%%%      NICTA Energy System Test Case Archive (NESTA) - v0.7.0      %%%%%
%%%%           Optimal Power Flow - Small Angle Difference            %%%%%
%%%%                         05 - June - 2017                         %%%%%
%%%%                                                                  %%%%%
%%%%%%%%%%%%%%%%%%%%%%%%%%%%%%%%%%%%%%%%%%%%%%%%%%%%%%%%%%%%%%%%%%%%%%%%%%%
function mpc = nesta_case73_ieee_rts__sad
mpc.version = '2';
mpc.baseMVA = 100.0;

%% area data
%	area	refbus
mpc.areas = [
	1	 101;
	2	 201;
	3	 301;
];

%% bus data
%	bus_i	type	Pd	Qd	Gs	Bs	area	Vm	Va	baseKV	zone	Vmax	Vmin
mpc.bus = [
	101	 2	 108.0	 22.0	 0.0	 0.0	 1	    1.03213	   -8.78097	 138.0	 1	    1.05000	    0.95000;
	102	 2	 97.0	 20.0	 0.0	 0.0	 1	    1.02722	   -8.74749	 138.0	 1	    1.05000	    0.95000;
	103	 1	 180.0	 37.0	 0.0	 0.0	 1	    1.00951	  -10.10248	 138.0	 1	    1.05000	    0.95000;
	104	 1	 74.0	 15.0	 0.0	 0.0	 1	    1.00955	  -11.59917	 138.0	 1	    1.05000	    0.95000;
	105	 1	 71.0	 14.0	 0.0	 0.0	 1	    1.02767	  -11.61109	 138.0	 1	    1.05000	    0.95000;
	106	 1	 136.0	 28.0	 0.0	 -100.0	 1	    1.02732	  -14.07546	 138.0	 1	    1.05000	    0.95000;
	107	 2	 125.0	 25.0	 0.0	 0.0	 1	    1.05000	   -5.82271	 138.0	 1	    1.05000	    0.95000;
	108	 1	 171.0	 35.0	 0.0	 0.0	 1	    1.01740	  -10.92837	 138.0	 1	    1.05000	    0.95000;
	109	 1	 175.0	 36.0	 0.0	 0.0	 1	    1.02858	   -9.86009	 138.0	 1	    1.05000	    0.95000;
	110	 1	 195.0	 40.0	 0.0	 0.0	 1	    1.05000	  -11.31447	 138.0	 1	    1.05000	    0.95000;
	111	 1	 0.0	 0.0	 0.0	 0.0	 1	    1.03359	   -5.32531	 230.0	 1	    1.05000	    0.95000;
	112	 1	 0.0	 0.0	 0.0	 0.0	 1	    1.02729	   -3.75934	 230.0	 1	    1.05000	    0.95000;
	113	 3	 265.0	 54.0	 0.0	 0.0	 1	    1.05000	    0.00000	 230.0	 1	    1.05000	    0.95000;
	114	 2	 194.0	 39.0	 0.0	 0.0	 1	    1.05000	   -4.95219	 230.0	 1	    1.05000	    0.95000;
	115	 2	 317.0	 64.0	 0.0	 0.0	 1	    1.04390	    1.88794	 230.0	 1	    1.05000	    0.95000;
	116	 2	 100.0	 20.0	 0.0	 0.0	 1	    1.04719	    1.78012	 230.0	 1	    1.05000	    0.95000;
	117	 1	 0.0	 0.0	 0.0	 0.0	 1	    1.04829	    5.68238	 230.0	 1	    1.05000	    0.95000;
	118	 2	 333.0	 68.0	 0.0	 0.0	 1	    1.05000	    6.79369	 230.0	 1	    1.05000	    0.95000;
	119	 1	 181.0	 37.0	 0.0	 0.0	 1	    1.04046	    1.11405	 230.0	 1	    1.05000	    0.95000;
	120	 1	 128.0	 26.0	 0.0	 0.0	 1	    1.04422	    2.40766	 230.0	 1	    1.05000	    0.95000;
	121	 2	 0.0	 0.0	 0.0	 0.0	 1	    1.05000	    7.37210	 230.0	 1	    1.05000	    0.95000;
	122	 2	 0.0	 0.0	 0.0	 0.0	 1	    1.05000	   13.22070	 230.0	 1	    1.05000	    0.95000;
	123	 2	 0.0	 0.0	 0.0	 0.0	 1	    1.05000	    3.83882	 230.0	 1	    1.05000	    0.95000;
	124	 1	 0.0	 0.0	 0.0	 0.0	 1	    1.01599	   -2.50432	 230.0	 1	    1.05000	    0.95000;
	201	 2	 108.0	 22.0	 0.0	 0.0	 2	    1.03452	   -5.52092	 138.0	 2	    1.05000	    0.95000;
	202	 2	 97.0	 20.0	 0.0	 0.0	 2	    1.03208	   -5.52619	 138.0	 2	    1.05000	    0.95000;
	203	 1	 180.0	 37.0	 0.0	 0.0	 2	    1.02247	   -6.67649	 138.0	 2	    1.05000	    0.95000;
	204	 1	 74.0	 15.0	 0.0	 0.0	 2	    1.01307	   -8.35239	 138.0	 2	    1.05000	    0.95000;
	205	 1	 71.0	 14.0	 0.0	 0.0	 2	    1.02889	   -8.38603	 138.0	 2	    1.05000	    0.95000;
	206	 1	 136.0	 28.0	 0.0	 -100.0	 2	    1.02853	  -10.87546	 138.0	 2	    1.05000	    0.95000;
	207	 2	 125.0	 25.0	 0.0	 0.0	 2	    1.03798	   -1.24435	 138.0	 2	    1.05000	    0.95000;
	208	 1	 171.0	 35.0	 0.0	 0.0	 2	    1.01015	   -6.99036	 138.0	 2	    1.05000	    0.95000;
	209	 1	 175.0	 36.0	 0.0	 0.0	 2	    1.03087	   -6.62113	 138.0	 2	    1.05000	    0.95000;
	210	 1	 195.0	 40.0	 0.0	 0.0	 2	    1.05000	   -8.13532	 138.0	 2	    1.05000	    0.95000;
	211	 1	 0.0	 0.0	 0.0	 0.0	 2	    1.03438	   -2.36068	 230.0	 2	    1.05000	    0.95000;
	212	 1	 0.0	 0.0	 0.0	 0.0	 2	    1.02828	   -0.79173	 230.0	 2	    1.05000	    0.95000;
	213	 2	 265.0	 54.0	 0.0	 0.0	 2	    1.05000	    2.71257	 230.0	 2	    1.05000	    0.95000;
	214	 2	 194.0	 39.0	 0.0	 0.0	 2	    1.05000	   -1.99559	 230.0	 2	    1.05000	    0.95000;
	215	 2	 317.0	 64.0	 0.0	 0.0	 2	    1.04763	    4.66409	 230.0	 2	    1.05000	    0.95000;
	216	 2	 100.0	 20.0	 0.0	 0.0	 2	    1.04861	    4.70262	 230.0	 2	    1.05000	    0.95000;
	217	 1	 0.0	 0.0	 0.0	 0.0	 2	    1.04452	    7.82512	 230.0	 2	    1.05000	    0.95000;
	218	 2	 333.0	 68.0	 0.0	 0.0	 2	    1.04083	    9.29285	 230.0	 2	    1.05000	    0.95000;
	219	 1	 181.0	 37.0	 0.0	 0.0	 2	    1.04128	    4.05734	 230.0	 2	    1.05000	    0.95000;
	220	 1	 128.0	 26.0	 0.0	 0.0	 2	    1.04450	    5.36632	 230.0	 2	    1.05000	    0.95000;
	221	 2	 0.0	 0.0	 0.0	 0.0	 2	    1.05000	   10.09526	 230.0	 2	    1.05000	    0.95000;
	222	 2	 0.0	 0.0	 0.0	 0.0	 2	    1.05000	   15.42328	 230.0	 2	    1.05000	    0.95000;
	223	 2	 0.0	 0.0	 0.0	 0.0	 2	    1.05000	    6.80643	 230.0	 2	    1.05000	    0.95000;
	224	 1	 0.0	 0.0	 0.0	 0.0	 2	    1.02397	    0.47410	 230.0	 2	    1.05000	    0.95000;
	301	 2	 108.0	 22.0	 0.0	 0.0	 3	    1.03974	   -8.01552	 138.0	 3	    1.05000	    0.95000;
	302	 2	 97.0	 20.0	 0.0	 0.0	 3	    1.03410	   -7.97392	 138.0	 3	    1.05000	    0.95000;
	303	 1	 180.0	 37.0	 0.0	 0.0	 3	    1.01087	   -9.22015	 138.0	 3	    1.05000	    0.95000;
	304	 1	 74.0	 15.0	 0.0	 0.0	 3	    1.01229	  -10.73926	 138.0	 3	    1.05000	    0.95000;
	305	 1	 71.0	 14.0	 0.0	 0.0	 3	    1.03163	  -10.76263	 138.0	 3	    1.05000	    0.95000;
	306	 1	 136.0	 28.0	 0.0	 -100.0	 3	    1.02908	  -13.18912	 138.0	 3	    1.05000	    0.95000;
	307	 2	 125.0	 25.0	 0.0	 0.0	 3	    1.03259	   -3.43299	 138.0	 3	    1.05000	    0.95000;
	308	 1	 171.0	 35.0	 0.0	 0.0	 3	    1.00622	   -9.25857	 138.0	 3	    1.05000	    0.95000;
	309	 1	 175.0	 36.0	 0.0	 0.0	 3	    1.02781	   -8.95423	 138.0	 3	    1.05000	    0.95000;
	310	 1	 195.0	 40.0	 0.0	 0.0	 3	    1.05000	  -10.41367	 138.0	 3	    1.05000	    0.95000;
	311	 1	 0.0	 0.0	 0.0	 0.0	 3	    1.03372	   -4.57339	 230.0	 3	    1.05000	    0.95000;
	312	 1	 0.0	 0.0	 0.0	 0.0	 3	    1.02739	   -3.00362	 230.0	 3	    1.05000	    0.95000;
	313	 2	 265.0	 54.0	 0.0	 0.0	 3	    1.05000	    0.59053	 230.0	 3	    1.05000	    0.95000;
	314	 2	 194.0	 39.0	 0.0	 0.0	 3	    1.05000	   -4.20900	 230.0	 3	    1.05000	    0.95000;
	315	 2	 317.0	 64.0	 0.0	 0.0	 3	    1.04347	    2.78230	 230.0	 3	    1.05000	    0.95000;
	316	 2	 100.0	 20.0	 0.0	 0.0	 3	    1.04656	    2.51690	 230.0	 3	    1.05000	    0.95000;
	317	 1	 0.0	 0.0	 0.0	 0.0	 3	    1.04798	    6.56257	 230.0	 3	    1.05000	    0.95000;
	318	 2	 333.0	 68.0	 0.0	 0.0	 3	    1.05000	    7.74136	 230.0	 3	    1.05000	    0.95000;
	319	 1	 181.0	 37.0	 0.0	 0.0	 3	    1.03995	    1.85760	 230.0	 3	    1.05000	    0.95000;
	320	 1	 128.0	 26.0	 0.0	 0.0	 3	    1.04382	    3.15887	 230.0	 3	    1.05000	    0.95000;
	321	 2	 0.0	 0.0	 0.0	 0.0	 3	    1.05000	    8.50092	 230.0	 3	    1.05000	    0.95000;
	322	 2	 0.0	 0.0	 0.0	 0.0	 3	    1.05000	   14.16073	 230.0	 3	    1.05000	    0.95000;
	323	 2	 0.0	 0.0	 0.0	 0.0	 3	    1.04967	    4.59454	 230.0	 3	    1.05000	    0.95000;
	324	 1	 0.0	 0.0	 0.0	 0.0	 3	    1.01622	   -1.62199	 230.0	 3	    1.05000	    0.95000;
	325	 1	 0.0	 0.0	 0.0	 0.0	 3	    1.05000	    4.82653	 230.0	 3	    1.05000	    0.95000;
];

%% generator data
%	bus	Pg	Qg	Qmax	Qmin	Vg	mBase	status	Pmax	Pmin	Pc1	Pc2	Qc1min	Qc1max	Qc2min	Qc2max	ramp_agc	ramp_10	ramp_30	ramp_q	apf
mpc.gen = [
	101	 16.0	 5.217	 10.0	 0.0	 1.03213	 100.0	 1	 20.0	 16.0	 0.0	 0.0	 0.0	 0.0	 0.0	 0.0	 0.0	 0.0	 0.0	 0.0	 0.0;
	101	 16.0	 5.217	 10.0	 0.0	 1.03213	 100.0	 1	 20.0	 16.0	 0.0	 0.0	 0.0	 0.0	 0.0	 0.0	 0.0	 0.0	 0.0	 0.0	 0.0;
	101	 76.0	 8.743	 30.0	 -25.0	 1.03213	 100.0	 1	 76.0	 15.2	 0.0	 0.0	 0.0	 0.0	 0.0	 0.0	 0.0	 0.0	 0.0	 0.0	 0.0;
	101	 76.0	 8.743	 30.0	 -25.0	 1.03213	 100.0	 1	 76.0	 15.2	 0.0	 0.0	 0.0	 0.0	 0.0	 0.0	 0.0	 0.0	 0.0	 0.0	 0.0;
	102	 16.0	 0.0	 10.0	 0.0	 1.02722	 100.0	 1	 20.0	 16.0	 0.0	 0.0	 0.0	 0.0	 0.0	 0.0	 0.0	 0.0	 0.0	 0.0	 0.0;
	102	 16.0	 0.0	 10.0	 0.0	 1.02722	 100.0	 1	 20.0	 16.0	 0.0	 0.0	 0.0	 0.0	 0.0	 0.0	 0.0	 0.0	 0.0	 0.0	 0.0;
	102	 76.0	 -25.0	 30.0	 -25.0	 1.02722	 100.0	 1	 76.0	 15.2	 0.0	 0.0	 0.0	 0.0	 0.0	 0.0	 0.0	 0.0	 0.0	 0.0	 0.0;
	102	 76.0	 -25.0	 30.0	 -25.0	 1.02722	 100.0	 1	 76.0	 15.2	 0.0	 0.0	 0.0	 0.0	 0.0	 0.0	 0.0	 0.0	 0.0	 0.0	 0.0;
	107	 100.0	 18.948	 60.0	 0.0	 1.05	 100.0	 1	 100.0	 25.0	 0.0	 0.0	 0.0	 0.0	 0.0	 0.0	 0.0	 0.0	 0.0	 0.0	 0.0;
	107	 100.0	 18.948	 60.0	 0.0	 1.05	 100.0	 1	 100.0	 25.0	 0.0	 0.0	 0.0	 0.0	 0.0	 0.0	 0.0	 0.0	 0.0	 0.0	 0.0;
	107	 100.0	 18.948	 60.0	 0.0	 1.05	 100.0	 1	 100.0	 25.0	 0.0	 0.0	 0.0	 0.0	 0.0	 0.0	 0.0	 0.0	 0.0	 0.0	 0.0;
	113	 143.251	 38.637	 80.0	 0.0	 1.05	 100.0	 1	 197.0	 69.0	 0.0	 0.0	 0.0	 0.0	 0.0	 0.0	 0.0	 0.0	 0.0	 0.0	 0.0;
	113	 143.251	 38.637	 80.0	 0.0	 1.05	 100.0	 1	 197.0	 69.0	 0.0	 0.0	 0.0	 0.0	 0.0	 0.0	 0.0	 0.0	 0.0	 0.0	 0.0;
	113	 143.251	 38.637	 80.0	 0.0	 1.05	 100.0	 1	 197.0	 69.0	 0.0	 0.0	 0.0	 0.0	 0.0	 0.0	 0.0	 0.0	 0.0	 0.0	 0.0;
	114	 0.0	 104.282	 200.0	 -50.0	 1.05	 100.0	 1	 0.0	 0.0	 0.0	 0.0	 0.0	 0.0	 0.0	 0.0	 0.0	 0.0	 0.0	 0.0	 0.0;
	115	 2.4	 6.0	 6.0	 0.0	 1.0439	 100.0	 1	 12.0	 2.4	 0.0	 0.0	 0.0	 0.0	 0.0	 0.0	 0.0	 0.0	 0.0	 0.0	 0.0;
	115	 2.4	 6.0	 6.0	 0.0	 1.0439	 100.0	 1	 12.0	 2.4	 0.0	 0.0	 0.0	 0.0	 0.0	 0.0	 0.0	 0.0	 0.0	 0.0	 0.0;
	115	 2.4	 6.0	 6.0	 0.0	 1.0439	 100.0	 1	 12.0	 2.4	 0.0	 0.0	 0.0	 0.0	 0.0	 0.0	 0.0	 0.0	 0.0	 0.0	 0.0;
	115	 2.4	 6.0	 6.0	 0.0	 1.0439	 100.0	 1	 12.0	 2.4	 0.0	 0.0	 0.0	 0.0	 0.0	 0.0	 0.0	 0.0	 0.0	 0.0	 0.0;
	115	 2.4	 6.0	 6.0	 0.0	 1.0439	 100.0	 1	 12.0	 2.4	 0.0	 0.0	 0.0	 0.0	 0.0	 0.0	 0.0	 0.0	 0.0	 0.0	 0.0;
	115	 54.3	 80.0	 80.0	 -50.0	 1.0439	 100.0	 1	 155.0	 54.3	 0.0	 0.0	 0.0	 0.0	 0.0	 0.0	 0.0	 0.0	 0.0	 0.0	 0.0;
	116	 83.16	 80.0	 80.0	 -50.0	 1.04719	 100.0	 1	 155.0	 54.3	 0.0	 0.0	 0.0	 0.0	 0.0	 0.0	 0.0	 0.0	 0.0	 0.0	 0.0;
	118	 400.0	 63.133	 200.0	 -50.0	 1.05	 100.0	 1	 400.0	 100.0	 0.0	 0.0	 0.0	 0.0	 0.0	 0.0	 0.0	 0.0	 0.0	 0.0	 0.0;
	121	 400.0	 -26.677	 200.0	 -50.0	 1.05	 100.0	 1	 400.0	 100.0	 0.0	 0.0	 0.0	 0.0	 0.0	 0.0	 0.0	 0.0	 0.0	 0.0	 0.0;
	122	 50.0	 -6.773	 16.0	 -10.0	 1.05	 100.0	 1	 50.0	 10.0	 0.0	 0.0	 0.0	 0.0	 0.0	 0.0	 0.0	 0.0	 0.0	 0.0	 0.0;
	122	 50.0	 -6.773	 16.0	 -10.0	 1.05	 100.0	 1	 50.0	 10.0	 0.0	 0.0	 0.0	 0.0	 0.0	 0.0	 0.0	 0.0	 0.0	 0.0	 0.0;
	122	 50.0	 -6.773	 16.0	 -10.0	 1.05	 100.0	 1	 50.0	 10.0	 0.0	 0.0	 0.0	 0.0	 0.0	 0.0	 0.0	 0.0	 0.0	 0.0	 0.0;
	122	 50.0	 -6.773	 16.0	 -10.0	 1.05	 100.0	 1	 50.0	 10.0	 0.0	 0.0	 0.0	 0.0	 0.0	 0.0	 0.0	 0.0	 0.0	 0.0	 0.0;
	122	 50.0	 -6.773	 16.0	 -10.0	 1.05	 100.0	 1	 50.0	 10.0	 0.0	 0.0	 0.0	 0.0	 0.0	 0.0	 0.0	 0.0	 0.0	 0.0	 0.0;
	122	 50.0	 -6.773	 16.0	 -10.0	 1.05	 100.0	 1	 50.0	 10.0	 0.0	 0.0	 0.0	 0.0	 0.0	 0.0	 0.0	 0.0	 0.0	 0.0	 0.0;
	123	 89.186	 -3.989	 80.0	 -50.0	 1.05	 100.0	 1	 155.0	 54.3	 0.0	 0.0	 0.0	 0.0	 0.0	 0.0	 0.0	 0.0	 0.0	 0.0	 0.0;
	123	 89.186	 -3.989	 80.0	 -50.0	 1.05	 100.0	 1	 155.0	 54.3	 0.0	 0.0	 0.0	 0.0	 0.0	 0.0	 0.0	 0.0	 0.0	 0.0	 0.0;
	123	 207.026	 30.052	 150.0	 -25.0	 1.05	 100.0	 1	 350.0	 140.0	 0.0	 0.0	 0.0	 0.0	 0.0	 0.0	 0.0	 0.0	 0.0	 0.0	 0.0;
	201	 16.0	 4.852	 10.0	 0.0	 1.03452	 100.0	 1	 20.0	 16.0	 0.0	 0.0	 0.0	 0.0	 0.0	 0.0	 0.0	 0.0	 0.0	 0.0	 0.0;
	201	 16.0	 4.852	 10.0	 0.0	 1.03452	 100.0	 1	 20.0	 16.0	 0.0	 0.0	 0.0	 0.0	 0.0	 0.0	 0.0	 0.0	 0.0	 0.0	 0.0;
	201	 76.0	 -1.854	 30.0	 -25.0	 1.03452	 100.0	 1	 76.0	 15.2	 0.0	 0.0	 0.0	 0.0	 0.0	 0.0	 0.0	 0.0	 0.0	 0.0	 0.0;
	201	 76.0	 -1.854	 30.0	 -25.0	 1.03452	 100.0	 1	 76.0	 15.2	 0.0	 0.0	 0.0	 0.0	 0.0	 0.0	 0.0	 0.0	 0.0	 0.0	 0.0;
	202	 16.0	 3.564	 10.0	 0.0	 1.03208	 100.0	 1	 20.0	 16.0	 0.0	 0.0	 0.0	 0.0	 0.0	 0.0	 0.0	 0.0	 0.0	 0.0	 0.0;
	202	 16.0	 3.564	 10.0	 0.0	 1.03208	 100.0	 1	 20.0	 16.0	 0.0	 0.0	 0.0	 0.0	 0.0	 0.0	 0.0	 0.0	 0.0	 0.0	 0.0;
	202	 76.0	 -18.15	 30.0	 -25.0	 1.03208	 100.0	 1	 76.0	 15.2	 0.0	 0.0	 0.0	 0.0	 0.0	 0.0	 0.0	 0.0	 0.0	 0.0	 0.0;
	202	 76.0	 -18.15	 30.0	 -25.0	 1.03208	 100.0	 1	 76.0	 15.2	 0.0	 0.0	 0.0	 0.0	 0.0	 0.0	 0.0	 0.0	 0.0	 0.0	 0.0;
	207	 99.919	 11.414	 60.0	 0.0	 1.03798	 100.0	 1	 100.0	 25.0	 0.0	 0.0	 0.0	 0.0	 0.0	 0.0	 0.0	 0.0	 0.0	 0.0	 0.0;
	207	 99.919	 11.414	 60.0	 0.0	 1.03798	 100.0	 1	 100.0	 25.0	 0.0	 0.0	 0.0	 0.0	 0.0	 0.0	 0.0	 0.0	 0.0	 0.0	 0.0;
	207	 99.919	 11.414	 60.0	 0.0	 1.03798	 100.0	 1	 100.0	 25.0	 0.0	 0.0	 0.0	 0.0	 0.0	 0.0	 0.0	 0.0	 0.0	 0.0	 0.0;
	213	 173.468	 33.042	 80.0	 0.0	 1.05	 100.0	 1	 197.0	 69.0	 0.0	 0.0	 0.0	 0.0	 0.0	 0.0	 0.0	 0.0	 0.0	 0.0	 0.0;
	213	 173.468	 33.042	 80.0	 0.0	 1.05	 100.0	 1	 197.0	 69.0	 0.0	 0.0	 0.0	 0.0	 0.0	 0.0	 0.0	 0.0	 0.0	 0.0	 0.0;
	213	 173.468	 33.042	 80.0	 0.0	 1.05	 100.0	 1	 197.0	 69.0	 0.0	 0.0	 0.0	 0.0	 0.0	 0.0	 0.0	 0.0	 0.0	 0.0	 0.0;
	214	 0.0	 99.668	 200.0	 -50.0	 1.05	 100.0	 1	 0.0	 0.0	 0.0	 0.0	 0.0	 0.0	 0.0	 0.0	 0.0	 0.0	 0.0	 0.0	 0.0;
	215	 2.4	 6.0	 6.0	 0.0	 1.04763	 100.0	 1	 12.0	 2.4	 0.0	 0.0	 0.0	 0.0	 0.0	 0.0	 0.0	 0.0	 0.0	 0.0	 0.0;
	215	 2.4	 6.0	 6.0	 0.0	 1.04763	 100.0	 1	 12.0	 2.4	 0.0	 0.0	 0.0	 0.0	 0.0	 0.0	 0.0	 0.0	 0.0	 0.0	 0.0;
	215	 2.4	 6.0	 6.0	 0.0	 1.04763	 100.0	 1	 12.0	 2.4	 0.0	 0.0	 0.0	 0.0	 0.0	 0.0	 0.0	 0.0	 0.0	 0.0	 0.0;
	215	 2.4	 6.0	 6.0	 0.0	 1.04763	 100.0	 1	 12.0	 2.4	 0.0	 0.0	 0.0	 0.0	 0.0	 0.0	 0.0	 0.0	 0.0	 0.0	 0.0;
	215	 2.4	 6.0	 6.0	 0.0	 1.04763	 100.0	 1	 12.0	 2.4	 0.0	 0.0	 0.0	 0.0	 0.0	 0.0	 0.0	 0.0	 0.0	 0.0	 0.0;
	215	 155.0	 80.0	 80.0	 -50.0	 1.04763	 100.0	 1	 155.0	 54.3	 0.0	 0.0	 0.0	 0.0	 0.0	 0.0	 0.0	 0.0	 0.0	 0.0	 0.0;
	216	 155.0	 80.0	 80.0	 -50.0	 1.04861	 100.0	 1	 155.0	 54.3	 0.0	 0.0	 0.0	 0.0	 0.0	 0.0	 0.0	 0.0	 0.0	 0.0	 0.0;
	218	 400.0	 -50.0	 200.0	 -50.0	 1.04083	 100.0	 1	 400.0	 100.0	 0.0	 0.0	 0.0	 0.0	 0.0	 0.0	 0.0	 0.0	 0.0	 0.0	 0.0;
	221	 400.0	 40.274	 200.0	 -50.0	 1.05	 100.0	 1	 400.0	 100.0	 0.0	 0.0	 0.0	 0.0	 0.0	 0.0	 0.0	 0.0	 0.0	 0.0	 0.0;
	222	 47.748	 -6.068	 16.0	 -10.0	 1.05	 100.0	 1	 50.0	 10.0	 0.0	 0.0	 0.0	 0.0	 0.0	 0.0	 0.0	 0.0	 0.0	 0.0	 0.0;
	222	 47.748	 -6.068	 16.0	 -10.0	 1.05	 100.0	 1	 50.0	 10.0	 0.0	 0.0	 0.0	 0.0	 0.0	 0.0	 0.0	 0.0	 0.0	 0.0	 0.0;
	222	 47.748	 -6.068	 16.0	 -10.0	 1.05	 100.0	 1	 50.0	 10.0	 0.0	 0.0	 0.0	 0.0	 0.0	 0.0	 0.0	 0.0	 0.0	 0.0	 0.0;
	222	 47.748	 -6.068	 16.0	 -10.0	 1.05	 100.0	 1	 50.0	 10.0	 0.0	 0.0	 0.0	 0.0	 0.0	 0.0	 0.0	 0.0	 0.0	 0.0	 0.0;
	222	 47.748	 -6.068	 16.0	 -10.0	 1.05	 100.0	 1	 50.0	 10.0	 0.0	 0.0	 0.0	 0.0	 0.0	 0.0	 0.0	 0.0	 0.0	 0.0	 0.0;
	222	 47.748	 -6.068	 16.0	 -10.0	 1.05	 100.0	 1	 50.0	 10.0	 0.0	 0.0	 0.0	 0.0	 0.0	 0.0	 0.0	 0.0	 0.0	 0.0	 0.0;
	223	 113.347	 -12.769	 80.0	 -50.0	 1.05	 100.0	 1	 155.0	 54.3	 0.0	 0.0	 0.0	 0.0	 0.0	 0.0	 0.0	 0.0	 0.0	 0.0	 0.0;
	223	 113.347	 -12.769	 80.0	 -50.0	 1.05	 100.0	 1	 155.0	 54.3	 0.0	 0.0	 0.0	 0.0	 0.0	 0.0	 0.0	 0.0	 0.0	 0.0	 0.0;
	223	 248.2	 17.341	 150.0	 -25.0	 1.05	 100.0	 1	 350.0	 140.0	 0.0	 0.0	 0.0	 0.0	 0.0	 0.0	 0.0	 0.0	 0.0	 0.0	 0.0;
	301	 16.0	 5.509	 10.0	 0.0	 1.03974	 100.0	 1	 20.0	 16.0	 0.0	 0.0	 0.0	 0.0	 0.0	 0.0	 0.0	 0.0	 0.0	 0.0	 0.0;
	301	 16.0	 5.509	 10.0	 0.0	 1.03974	 100.0	 1	 20.0	 16.0	 0.0	 0.0	 0.0	 0.0	 0.0	 0.0	 0.0	 0.0	 0.0	 0.0	 0.0;
	301	 76.0	 14.898	 30.0	 -25.0	 1.03974	 100.0	 1	 76.0	 15.2	 0.0	 0.0	 0.0	 0.0	 0.0	 0.0	 0.0	 0.0	 0.0	 0.0	 0.0;
	301	 76.0	 14.898	 30.0	 -25.0	 1.03974	 100.0	 1	 76.0	 15.2	 0.0	 0.0	 0.0	 0.0	 0.0	 0.0	 0.0	 0.0	 0.0	 0.0	 0.0;
	302	 16.0	 0.005	 10.0	 0.0	 1.0341	 100.0	 1	 20.0	 16.0	 0.0	 0.0	 0.0	 0.0	 0.0	 0.0	 0.0	 0.0	 0.0	 0.0	 0.0;
	302	 16.0	 0.005	 10.0	 0.0	 1.0341	 100.0	 1	 20.0	 16.0	 0.0	 0.0	 0.0	 0.0	 0.0	 0.0	 0.0	 0.0	 0.0	 0.0	 0.0;
	302	 76.0	 -24.995	 30.0	 -25.0	 1.0341	 100.0	 1	 76.0	 15.2	 0.0	 0.0	 0.0	 0.0	 0.0	 0.0	 0.0	 0.0	 0.0	 0.0	 0.0;
	302	 76.0	 -24.995	 30.0	 -25.0	 1.0341	 100.0	 1	 76.0	 15.2	 0.0	 0.0	 0.0	 0.0	 0.0	 0.0	 0.0	 0.0	 0.0	 0.0	 0.0;
	307	 99.958	 10.556	 60.0	 0.0	 1.03259	 100.0	 1	 100.0	 25.0	 0.0	 0.0	 0.0	 0.0	 0.0	 0.0	 0.0	 0.0	 0.0	 0.0	 0.0;
	307	 99.958	 10.556	 60.0	 0.0	 1.03259	 100.0	 1	 100.0	 25.0	 0.0	 0.0	 0.0	 0.0	 0.0	 0.0	 0.0	 0.0	 0.0	 0.0	 0.0;
	307	 99.958	 10.556	 60.0	 0.0	 1.03259	 100.0	 1	 100.0	 25.0	 0.0	 0.0	 0.0	 0.0	 0.0	 0.0	 0.0	 0.0	 0.0	 0.0	 0.0;
	313	 176.542	 34.05	 80.0	 0.0	 1.05	 100.0	 1	 197.0	 69.0	 0.0	 0.0	 0.0	 0.0	 0.0	 0.0	 0.0	 0.0	 0.0	 0.0	 0.0;
	313	 176.542	 34.05	 80.0	 0.0	 1.05	 100.0	 1	 197.0	 69.0	 0.0	 0.0	 0.0	 0.0	 0.0	 0.0	 0.0	 0.0	 0.0	 0.0	 0.0;
	313	 176.542	 34.05	 80.0	 0.0	 1.05	 100.0	 1	 197.0	 69.0	 0.0	 0.0	 0.0	 0.0	 0.0	 0.0	 0.0	 0.0	 0.0	 0.0	 0.0;
	314	 0.0	 105.044	 200.0	 -50.0	 1.05	 100.0	 1	 0.0	 0.0	 0.0	 0.0	 0.0	 0.0	 0.0	 0.0	 0.0	 0.0	 0.0	 0.0	 0.0;
	315	 2.4	 6.0	 6.0	 0.0	 1.04347	 100.0	 1	 12.0	 2.4	 0.0	 0.0	 0.0	 0.0	 0.0	 0.0	 0.0	 0.0	 0.0	 0.0	 0.0;
	315	 2.4	 6.0	 6.0	 0.0	 1.04347	 100.0	 1	 12.0	 2.4	 0.0	 0.0	 0.0	 0.0	 0.0	 0.0	 0.0	 0.0	 0.0	 0.0	 0.0;
	315	 2.4	 6.0	 6.0	 0.0	 1.04347	 100.0	 1	 12.0	 2.4	 0.0	 0.0	 0.0	 0.0	 0.0	 0.0	 0.0	 0.0	 0.0	 0.0	 0.0;
	315	 2.4	 6.0	 6.0	 0.0	 1.04347	 100.0	 1	 12.0	 2.4	 0.0	 0.0	 0.0	 0.0	 0.0	 0.0	 0.0	 0.0	 0.0	 0.0	 0.0;
	315	 2.4	 6.0	 6.0	 0.0	 1.04347	 100.0	 1	 12.0	 2.4	 0.0	 0.0	 0.0	 0.0	 0.0	 0.0	 0.0	 0.0	 0.0	 0.0	 0.0;
	315	 54.3	 80.0	 80.0	 -50.0	 1.04347	 100.0	 1	 155.0	 54.3	 0.0	 0.0	 0.0	 0.0	 0.0	 0.0	 0.0	 0.0	 0.0	 0.0	 0.0;
	316	 54.3	 80.0	 80.0	 -50.0	 1.04656	 100.0	 1	 155.0	 54.3	 0.0	 0.0	 0.0	 0.0	 0.0	 0.0	 0.0	 0.0	 0.0	 0.0	 0.0;
	318	 400.0	 53.639	 200.0	 -50.0	 1.05	 100.0	 1	 400.0	 100.0	 0.0	 0.0	 0.0	 0.0	 0.0	 0.0	 0.0	 0.0	 0.0	 0.0	 0.0;
	321	 400.0	 -13.012	 200.0	 -50.0	 1.05	 100.0	 1	 400.0	 100.0	 0.0	 0.0	 0.0	 0.0	 0.0	 0.0	 0.0	 0.0	 0.0	 0.0	 0.0;
	322	 49.299	 -6.695	 16.0	 -10.0	 1.05	 100.0	 1	 50.0	 10.0	 0.0	 0.0	 0.0	 0.0	 0.0	 0.0	 0.0	 0.0	 0.0	 0.0	 0.0;
	322	 49.299	 -6.695	 16.0	 -10.0	 1.05	 100.0	 1	 50.0	 10.0	 0.0	 0.0	 0.0	 0.0	 0.0	 0.0	 0.0	 0.0	 0.0	 0.0	 0.0;
	322	 49.299	 -6.695	 16.0	 -10.0	 1.05	 100.0	 1	 50.0	 10.0	 0.0	 0.0	 0.0	 0.0	 0.0	 0.0	 0.0	 0.0	 0.0	 0.0	 0.0;
	322	 49.299	 -6.695	 16.0	 -10.0	 1.05	 100.0	 1	 50.0	 10.0	 0.0	 0.0	 0.0	 0.0	 0.0	 0.0	 0.0	 0.0	 0.0	 0.0	 0.0;
	322	 49.299	 -6.695	 16.0	 -10.0	 1.05	 100.0	 1	 50.0	 10.0	 0.0	 0.0	 0.0	 0.0	 0.0	 0.0	 0.0	 0.0	 0.0	 0.0	 0.0;
	322	 49.299	 -6.695	 16.0	 -10.0	 1.05	 100.0	 1	 50.0	 10.0	 0.0	 0.0	 0.0	 0.0	 0.0	 0.0	 0.0	 0.0	 0.0	 0.0	 0.0;
	323	 103.828	 -9.889	 80.0	 -50.0	 1.04967	 100.0	 1	 155.0	 54.3	 0.0	 0.0	 0.0	 0.0	 0.0	 0.0	 0.0	 0.0	 0.0	 0.0	 0.0;
	323	 103.828	 -9.889	 80.0	 -50.0	 1.04967	 100.0	 1	 155.0	 54.3	 0.0	 0.0	 0.0	 0.0	 0.0	 0.0	 0.0	 0.0	 0.0	 0.0	 0.0;
	323	 231.978	 21.342	 150.0	 -25.0	 1.04967	 100.0	 1	 350.0	 140.0	 0.0	 0.0	 0.0	 0.0	 0.0	 0.0	 0.0	 0.0	 0.0	 0.0	 0.0;
];

%% generator cost data
%	2	startup	shutdown	n	c(n-1)	...	c0
mpc.gencost = [
	2	 1500.0	 0.0	 3	   0.000000	 130.000000	 400.684900;
	2	 1500.0	 0.0	 3	   0.000000	 130.000000	 400.684900;
	2	 1500.0	 0.0	 3	   0.014142	  16.081100	 212.307600;
	2	 1500.0	 0.0	 3	   0.014142	  16.081100	 212.307600;
	2	 1500.0	 0.0	 3	   0.000000	 130.000000	 400.684900;
	2	 1500.0	 0.0	 3	   0.000000	 130.000000	 400.684900;
	2	 1500.0	 0.0	 3	   0.014142	  16.081100	 212.307600;
	2	 1500.0	 0.0	 3	   0.014142	  16.081100	 212.307600;
	2	 1500.0	 0.0	 3	   0.052672	  43.661500	 781.521000;
	2	 1500.0	 0.0	 3	   0.052672	  43.661500	 781.521000;
	2	 1500.0	 0.0	 3	   0.052672	  43.661500	 781.521000;
	2	 1500.0	 0.0	 3	   0.007170	  48.580400	 832.757500;
	2	 1500.0	 0.0	 3	   0.007170	  48.580400	 832.757500;
	2	 1500.0	 0.0	 3	   0.007170	  48.580400	 832.757500;
	2	 1500.0	 0.0	 3	   0.000000	   0.000000	   0.000000;
	2	 1500.0	 0.0	 3	   0.328412	  56.564000	  86.385200;
	2	 1500.0	 0.0	 3	   0.328412	  56.564000	  86.385200;
	2	 1500.0	 0.0	 3	   0.328412	  56.564000	  86.385200;
	2	 1500.0	 0.0	 3	   0.328412	  56.564000	  86.385200;
	2	 1500.0	 0.0	 3	   0.328412	  56.564000	  86.385200;
	2	 1500.0	 0.0	 3	   0.008342	  12.388300	 382.239100;
	2	 1500.0	 0.0	 3	   0.008342	  12.388300	 382.239100;
	2	 1500.0	 0.0	 3	   0.000213	   4.423100	 395.374900;
	2	 1500.0	 0.0	 3	   0.000213	   4.423100	 395.374900;
	2	 1500.0	 0.0	 3	   0.000000	   0.001000	   0.001000;
	2	 1500.0	 0.0	 3	   0.000000	   0.001000	   0.001000;
	2	 1500.0	 0.0	 3	   0.000000	   0.001000	   0.001000;
	2	 1500.0	 0.0	 3	   0.000000	   0.001000	   0.001000;
	2	 1500.0	 0.0	 3	   0.000000	   0.001000	   0.001000;
	2	 1500.0	 0.0	 3	   0.000000	   0.001000	   0.001000;
	2	 1500.0	 0.0	 3	   0.008342	  12.388300	 382.239100;
	2	 1500.0	 0.0	 3	   0.008342	  12.388300	 382.239100;
	2	 1500.0	 0.0	 3	   0.004895	  11.849500	 665.109400;
	2	 1500.0	 0.0	 3	   0.000000	 130.000000	 400.684900;
	2	 1500.0	 0.0	 3	   0.000000	 130.000000	 400.684900;
	2	 1500.0	 0.0	 3	   0.014142	  16.081100	 212.307600;
	2	 1500.0	 0.0	 3	   0.014142	  16.081100	 212.307600;
	2	 1500.0	 0.0	 3	   0.000000	 130.000000	 400.684900;
	2	 1500.0	 0.0	 3	   0.000000	 130.000000	 400.684900;
	2	 1500.0	 0.0	 3	   0.014142	  16.081100	 212.307600;
	2	 1500.0	 0.0	 3	   0.014142	  16.081100	 212.307600;
	2	 1500.0	 0.0	 3	   0.052672	  43.661500	 781.521000;
	2	 1500.0	 0.0	 3	   0.052672	  43.661500	 781.521000;
	2	 1500.0	 0.0	 3	   0.052672	  43.661500	 781.521000;
	2	 1500.0	 0.0	 3	   0.007170	  48.580400	 832.757500;
	2	 1500.0	 0.0	 3	   0.007170	  48.580400	 832.757500;
	2	 1500.0	 0.0	 3	   0.007170	  48.580400	 832.757500;
	2	 1500.0	 0.0	 3	   0.000000	   0.000000	   0.000000;
	2	 1500.0	 0.0	 3	   0.328412	  56.564000	  86.385200;
	2	 1500.0	 0.0	 3	   0.328412	  56.564000	  86.385200;
	2	 1500.0	 0.0	 3	   0.328412	  56.564000	  86.385200;
	2	 1500.0	 0.0	 3	   0.328412	  56.564000	  86.385200;
	2	 1500.0	 0.0	 3	   0.328412	  56.564000	  86.385200;
	2	 1500.0	 0.0	 3	   0.008342	  12.388300	 382.239100;
	2	 1500.0	 0.0	 3	   0.008342	  12.388300	 382.239100;
	2	 1500.0	 0.0	 3	   0.000213	   4.423100	 395.374900;
	2	 1500.0	 0.0	 3	   0.000213	   4.423100	 395.374900;
	2	 1500.0	 0.0	 3	   0.000000	   0.001000	   0.001000;
	2	 1500.0	 0.0	 3	   0.000000	   0.001000	   0.001000;
	2	 1500.0	 0.0	 3	   0.000000	   0.001000	   0.001000;
	2	 1500.0	 0.0	 3	   0.000000	   0.001000	   0.001000;
	2	 1500.0	 0.0	 3	   0.000000	   0.001000	   0.001000;
	2	 1500.0	 0.0	 3	   0.000000	   0.001000	   0.001000;
	2	 1500.0	 0.0	 3	   0.008342	  12.388300	 382.239100;
	2	 1500.0	 0.0	 3	   0.008342	  12.388300	 382.239100;
	2	 1500.0	 0.0	 3	   0.004895	  11.849500	 665.109400;
	2	 1500.0	 0.0	 3	   0.000000	 130.000000	 400.684900;
	2	 1500.0	 0.0	 3	   0.000000	 130.000000	 400.684900;
	2	 1500.0	 0.0	 3	   0.014142	  16.081100	 212.307600;
	2	 1500.0	 0.0	 3	   0.014142	  16.081100	 212.307600;
	2	 1500.0	 0.0	 3	   0.000000	 130.000000	 400.684900;
	2	 1500.0	 0.0	 3	   0.000000	 130.000000	 400.684900;
	2	 1500.0	 0.0	 3	   0.014142	  16.081100	 212.307600;
	2	 1500.0	 0.0	 3	   0.014142	  16.081100	 212.307600;
	2	 1500.0	 0.0	 3	   0.052672	  43.661500	 781.521000;
	2	 1500.0	 0.0	 3	   0.052672	  43.661500	 781.521000;
	2	 1500.0	 0.0	 3	   0.052672	  43.661500	 781.521000;
	2	 1500.0	 0.0	 3	   0.007170	  48.580400	 832.757500;
	2	 1500.0	 0.0	 3	   0.007170	  48.580400	 832.757500;
	2	 1500.0	 0.0	 3	   0.007170	  48.580400	 832.757500;
	2	 1500.0	 0.0	 3	   0.000000	   0.000000	   0.000000;
	2	 1500.0	 0.0	 3	   0.328412	  56.564000	  86.385200;
	2	 1500.0	 0.0	 3	   0.328412	  56.564000	  86.385200;
	2	 1500.0	 0.0	 3	   0.328412	  56.564000	  86.385200;
	2	 1500.0	 0.0	 3	   0.328412	  56.564000	  86.385200;
	2	 1500.0	 0.0	 3	   0.328412	  56.564000	  86.385200;
	2	 1500.0	 0.0	 3	   0.008342	  12.388300	 382.239100;
	2	 1500.0	 0.0	 3	   0.008342	  12.388300	 382.239100;
	2	 1500.0	 0.0	 3	   0.000213	   4.423100	 395.374900;
	2	 1500.0	 0.0	 3	   0.000213	   4.423100	 395.374900;
	2	 1500.0	 0.0	 3	   0.000000	   0.001000	   0.001000;
	2	 1500.0	 0.0	 3	   0.000000	   0.001000	   0.001000;
	2	 1500.0	 0.0	 3	   0.000000	   0.001000	   0.001000;
	2	 1500.0	 0.0	 3	   0.000000	   0.001000	   0.001000;
	2	 1500.0	 0.0	 3	   0.000000	   0.001000	   0.001000;
	2	 1500.0	 0.0	 3	   0.000000	   0.001000	   0.001000;
	2	 1500.0	 0.0	 3	   0.008342	  12.388300	 382.239100;
	2	 1500.0	 0.0	 3	   0.008342	  12.388300	 382.239100;
	2	 1500.0	 0.0	 3	   0.004895	  11.849500	 665.109400;
];

%% branch data
%	fbus	tbus	r	x	b	rateA	rateB	rateC	ratio	angle	status	angmin	angmax
mpc.branch = [
	101	 102	 0.003	 0.014	 0.461	 175.0	 193.0	 200.0	 0.0	 0.0	 1	 -7.598157	 7.598157;
	101	 103	 0.055	 0.211	 0.057	 175.0	 208.0	 220.0	 0.0	 0.0	 1	 -7.598157	 7.598157;
	101	 105	 0.022	 0.085	 0.023	 175.0	 208.0	 220.0	 0.0	 0.0	 1	 -7.598157	 7.598157;
	102	 104	 0.033	 0.127	 0.034	 175.0	 208.0	 220.0	 0.0	 0.0	 1	 -7.598157	 7.598157;
	102	 106	 0.05	 0.192	 0.052	 175.0	 208.0	 220.0	 0.0	 0.0	 1	 -7.598157	 7.598157;
	103	 109	 0.031	 0.119	 0.032	 175.0	 208.0	 220.0	 0.0	 0.0	 1	 -7.598157	 7.598157;
	103	 124	 0.002	 0.084	 0.0	 400.0	 510.0	 600.0	 1.015	 0.0	 1	 -7.598157	 7.598157;
	104	 109	 0.027	 0.104	 0.028	 175.0	 208.0	 220.0	 0.0	 0.0	 1	 -7.598157	 7.598157;
	105	 110	 0.023	 0.088	 0.024	 175.0	 208.0	 220.0	 0.0	 0.0	 1	 -7.598157	 7.598157;
	106	 110	 0.014	 0.061	 2.459	 175.0	 193.0	 200.0	 0.0	 0.0	 1	 -7.598157	 7.598157;
	107	 108	 0.016	 0.061	 0.017	 175.0	 208.0	 220.0	 0.0	 0.0	 1	 -7.598157	 7.598157;
	107	 203	 0.042	 0.161	 0.044	 175.0	 208.0	 220.0	 0.0	 0.0	 1	 -7.598157	 7.598157;
	108	 109	 0.043	 0.165	 0.045	 175.0	 208.0	 220.0	 0.0	 0.0	 1	 -7.598157	 7.598157;
	108	 110	 0.043	 0.165	 0.045	 175.0	 208.0	 220.0	 0.0	 0.0	 1	 -7.598157	 7.598157;
	109	 111	 0.002	 0.084	 0.0	 400.0	 510.0	 600.0	 1.03	 0.0	 1	 -7.598157	 7.598157;
	109	 112	 0.002	 0.084	 0.0	 400.0	 510.0	 600.0	 1.03	 0.0	 1	 -7.598157	 7.598157;
	110	 111	 0.002	 0.084	 0.0	 400.0	 510.0	 600.0	 1.015	 0.0	 1	 -7.598157	 7.598157;
	110	 112	 0.002	 0.084	 0.0	 400.0	 510.0	 600.0	 1.015	 0.0	 1	 -7.598157	 7.598157;
	111	 113	 0.006	 0.048	 0.1	 500.0	 600.0	 625.0	 0.0	 0.0	 1	 -7.598157	 7.598157;
	111	 114	 0.005	 0.042	 0.088	 500.0	 600.0	 625.0	 0.0	 0.0	 1	 -7.598157	 7.598157;
	112	 113	 0.006	 0.048	 0.1	 500.0	 600.0	 625.0	 0.0	 0.0	 1	 -7.598157	 7.598157;
	112	 123	 0.012	 0.097	 0.203	 500.0	 600.0	 625.0	 0.0	 0.0	 1	 -7.598157	 7.598157;
	113	 123	 0.011	 0.087	 0.182	 500.0	 600.0	 625.0	 0.0	 0.0	 1	 -7.598157	 7.598157;
	113	 215	 0.01	 0.075	 0.158	 500.0	 600.0	 625.0	 0.0	 0.0	 1	 -7.598157	 7.598157;
	114	 116	 0.005	 0.059	 0.082	 500.0	 600.0	 625.0	 0.0	 0.0	 1	 -7.598157	 7.598157;
	115	 116	 0.002	 0.017	 0.036	 500.0	 600.0	 625.0	 0.0	 0.0	 1	 -7.598157	 7.598157;
	115	 121	 0.006	 0.049	 0.103	 500.0	 600.0	 625.0	 0.0	 0.0	 1	 -7.598157	 7.598157;
	115	 121	 0.006	 0.049	 0.103	 500.0	 600.0	 625.0	 0.0	 0.0	 1	 -7.598157	 7.598157;
	115	 124	 0.007	 0.052	 0.109	 500.0	 600.0	 625.0	 0.0	 0.0	 1	 -7.598157	 7.598157;
	116	 117	 0.003	 0.026	 0.055	 500.0	 600.0	 625.0	 0.0	 0.0	 1	 -7.598157	 7.598157;
	116	 119	 0.003	 0.023	 0.049	 500.0	 600.0	 625.0	 0.0	 0.0	 1	 -7.598157	 7.598157;
	117	 118	 0.002	 0.014	 0.03	 500.0	 600.0	 625.0	 0.0	 0.0	 1	 -7.598157	 7.598157;
	117	 122	 0.014	 0.105	 0.221	 500.0	 600.0	 625.0	 0.0	 0.0	 1	 -7.598157	 7.598157;
	118	 121	 0.003	 0.026	 0.055	 500.0	 600.0	 625.0	 0.0	 0.0	 1	 -7.598157	 7.598157;
	118	 121	 0.003	 0.026	 0.055	 500.0	 600.0	 625.0	 0.0	 0.0	 1	 -7.598157	 7.598157;
	119	 120	 0.005	 0.04	 0.083	 500.0	 600.0	 625.0	 0.0	 0.0	 1	 -7.598157	 7.598157;
	119	 120	 0.005	 0.04	 0.083	 500.0	 600.0	 625.0	 0.0	 0.0	 1	 -7.598157	 7.598157;
	120	 123	 0.003	 0.022	 0.046	 500.0	 600.0	 625.0	 0.0	 0.0	 1	 -7.598157	 7.598157;
	120	 123	 0.003	 0.022	 0.046	 500.0	 600.0	 625.0	 0.0	 0.0	 1	 -7.598157	 7.598157;
	121	 122	 0.009	 0.068	 0.142	 500.0	 600.0	 625.0	 0.0	 0.0	 1	 -7.598157	 7.598157;
	123	 217	 0.01	 0.074	 0.155	 500.0	 600.0	 625.0	 0.0	 0.0	 1	 -7.598157	 7.598157;
	201	 202	 0.003	 0.014	 0.461	 175.0	 193.0	 200.0	 0.0	 0.0	 1	 -7.598157	 7.598157;
	201	 203	 0.055	 0.211	 0.057	 175.0	 208.0	 220.0	 0.0	 0.0	 1	 -7.598157	 7.598157;
	201	 205	 0.022	 0.085	 0.023	 175.0	 208.0	 220.0	 0.0	 0.0	 1	 -7.598157	 7.598157;
	202	 204	 0.033	 0.127	 0.034	 175.0	 208.0	 220.0	 0.0	 0.0	 1	 -7.598157	 7.598157;
	202	 206	 0.05	 0.192	 0.052	 175.0	 208.0	 220.0	 0.0	 0.0	 1	 -7.598157	 7.598157;
	203	 209	 0.031	 0.119	 0.032	 175.0	 208.0	 220.0	 0.0	 0.0	 1	 -7.598157	 7.598157;
	203	 224	 0.002	 0.084	 0.0	 400.0	 510.0	 600.0	 1.015	 0.0	 1	 -7.598157	 7.598157;
	204	 209	 0.027	 0.104	 0.028	 175.0	 208.0	 220.0	 0.0	 0.0	 1	 -7.598157	 7.598157;
	205	 210	 0.023	 0.088	 0.024	 175.0	 208.0	 220.0	 0.0	 0.0	 1	 -7.598157	 7.598157;
	206	 210	 0.014	 0.061	 2.459	 175.0	 193.0	 200.0	 0.0	 0.0	 1	 -7.598157	 7.598157;
	207	 208	 0.016	 0.061	 0.017	 175.0	 208.0	 220.0	 0.0	 0.0	 1	 -7.598157	 7.598157;
	208	 209	 0.043	 0.165	 0.045	 175.0	 208.0	 220.0	 0.0	 0.0	 1	 -7.598157	 7.598157;
	208	 210	 0.043	 0.165	 0.045	 175.0	 208.0	 220.0	 0.0	 0.0	 1	 -7.598157	 7.598157;
	209	 211	 0.002	 0.084	 0.0	 400.0	 510.0	 600.0	 1.03	 0.0	 1	 -7.598157	 7.598157;
	209	 212	 0.002	 0.084	 0.0	 400.0	 510.0	 600.0	 1.03	 0.0	 1	 -7.598157	 7.598157;
	210	 211	 0.002	 0.084	 0.0	 400.0	 510.0	 600.0	 1.015	 0.0	 1	 -7.598157	 7.598157;
	210	 212	 0.002	 0.084	 0.0	 400.0	 510.0	 600.0	 1.015	 0.0	 1	 -7.598157	 7.598157;
	211	 213	 0.006	 0.048	 0.1	 500.0	 600.0	 625.0	 0.0	 0.0	 1	 -7.598157	 7.598157;
	211	 214	 0.005	 0.042	 0.088	 500.0	 600.0	 625.0	 0.0	 0.0	 1	 -7.598157	 7.598157;
	212	 213	 0.006	 0.048	 0.1	 500.0	 600.0	 625.0	 0.0	 0.0	 1	 -7.598157	 7.598157;
	212	 223	 0.012	 0.097	 0.203	 500.0	 600.0	 625.0	 0.0	 0.0	 1	 -7.598157	 7.598157;
	213	 223	 0.011	 0.087	 0.182	 500.0	 600.0	 625.0	 0.0	 0.0	 1	 -7.598157	 7.598157;
	214	 216	 0.005	 0.059	 0.082	 500.0	 600.0	 625.0	 0.0	 0.0	 1	 -7.598157	 7.598157;
	215	 216	 0.002	 0.017	 0.036	 500.0	 600.0	 625.0	 0.0	 0.0	 1	 -7.598157	 7.598157;
	215	 221	 0.006	 0.049	 0.103	 500.0	 600.0	 625.0	 0.0	 0.0	 1	 -7.598157	 7.598157;
	215	 221	 0.006	 0.049	 0.103	 500.0	 600.0	 625.0	 0.0	 0.0	 1	 -7.598157	 7.598157;
	215	 224	 0.007	 0.052	 0.109	 500.0	 600.0	 625.0	 0.0	 0.0	 1	 -7.598157	 7.598157;
	216	 217	 0.003	 0.026	 0.055	 500.0	 600.0	 625.0	 0.0	 0.0	 1	 -7.598157	 7.598157;
	216	 219	 0.003	 0.023	 0.049	 500.0	 600.0	 625.0	 0.0	 0.0	 1	 -7.598157	 7.598157;
	217	 218	 0.002	 0.014	 0.03	 500.0	 600.0	 625.0	 0.0	 0.0	 1	 -7.598157	 7.598157;
	217	 222	 0.014	 0.105	 0.221	 500.0	 600.0	 625.0	 0.0	 0.0	 1	 -7.598157	 7.598157;
	218	 221	 0.003	 0.026	 0.055	 500.0	 600.0	 625.0	 0.0	 0.0	 1	 -7.598157	 7.598157;
	218	 221	 0.003	 0.026	 0.055	 500.0	 600.0	 625.0	 0.0	 0.0	 1	 -7.598157	 7.598157;
	219	 220	 0.005	 0.04	 0.083	 500.0	 600.0	 625.0	 0.0	 0.0	 1	 -7.598157	 7.598157;
	219	 220	 0.005	 0.04	 0.083	 500.0	 600.0	 625.0	 0.0	 0.0	 1	 -7.598157	 7.598157;
	220	 223	 0.003	 0.022	 0.046	 500.0	 600.0	 625.0	 0.0	 0.0	 1	 -7.598157	 7.598157;
	220	 223	 0.003	 0.022	 0.046	 500.0	 600.0	 625.0	 0.0	 0.0	 1	 -7.598157	 7.598157;
	221	 222	 0.009	 0.068	 0.142	 500.0	 600.0	 625.0	 0.0	 0.0	 1	 -7.598157	 7.598157;
	301	 302	 0.003	 0.014	 0.461	 175.0	 193.0	 200.0	 0.0	 0.0	 1	 -7.598157	 7.598157;
	301	 303	 0.055	 0.211	 0.057	 175.0	 208.0	 220.0	 0.0	 0.0	 1	 -7.598157	 7.598157;
	301	 305	 0.022	 0.085	 0.023	 175.0	 208.0	 220.0	 0.0	 0.0	 1	 -7.598157	 7.598157;
	302	 304	 0.033	 0.127	 0.034	 175.0	 208.0	 220.0	 0.0	 0.0	 1	 -7.598157	 7.598157;
	302	 306	 0.05	 0.192	 0.052	 175.0	 208.0	 220.0	 0.0	 0.0	 1	 -7.598157	 7.598157;
	303	 309	 0.031	 0.119	 0.032	 175.0	 208.0	 220.0	 0.0	 0.0	 1	 -7.598157	 7.598157;
	303	 324	 0.002	 0.084	 0.0	 400.0	 510.0	 600.0	 1.015	 0.0	 1	 -7.598157	 7.598157;
	304	 309	 0.027	 0.104	 0.028	 175.0	 208.0	 220.0	 0.0	 0.0	 1	 -7.598157	 7.598157;
	305	 310	 0.023	 0.088	 0.024	 175.0	 208.0	 220.0	 0.0	 0.0	 1	 -7.598157	 7.598157;
	306	 310	 0.014	 0.061	 2.459	 175.0	 193.0	 200.0	 0.0	 0.0	 1	 -7.598157	 7.598157;
	307	 308	 0.016	 0.061	 0.017	 175.0	 208.0	 220.0	 0.0	 0.0	 1	 -7.598157	 7.598157;
	308	 309	 0.043	 0.165	 0.045	 175.0	 208.0	 220.0	 0.0	 0.0	 1	 -7.598157	 7.598157;
	308	 310	 0.043	 0.165	 0.045	 175.0	 208.0	 220.0	 0.0	 0.0	 1	 -7.598157	 7.598157;
	309	 311	 0.002	 0.084	 0.0	 400.0	 510.0	 600.0	 1.03	 0.0	 1	 -7.598157	 7.598157;
	309	 312	 0.002	 0.084	 0.0	 400.0	 510.0	 600.0	 1.03	 0.0	 1	 -7.598157	 7.598157;
	310	 311	 0.002	 0.084	 0.0	 400.0	 510.0	 600.0	 1.015	 0.0	 1	 -7.598157	 7.598157;
	310	 312	 0.002	 0.084	 0.0	 400.0	 510.0	 600.0	 1.015	 0.0	 1	 -7.598157	 7.598157;
	311	 313	 0.006	 0.048	 0.1	 500.0	 600.0	 625.0	 0.0	 0.0	 1	 -7.598157	 7.598157;
	311	 314	 0.005	 0.042	 0.088	 500.0	 600.0	 625.0	 0.0	 0.0	 1	 -7.598157	 7.598157;
	312	 313	 0.006	 0.048	 0.1	 500.0	 600.0	 625.0	 0.0	 0.0	 1	 -7.598157	 7.598157;
	312	 323	 0.012	 0.097	 0.203	 500.0	 600.0	 625.0	 0.0	 0.0	 1	 -7.598157	 7.598157;
	313	 323	 0.011	 0.087	 0.182	 500.0	 600.0	 625.0	 0.0	 0.0	 1	 -7.598157	 7.598157;
	314	 316	 0.005	 0.059	 0.082	 500.0	 600.0	 625.0	 0.0	 0.0	 1	 -7.598157	 7.598157;
	315	 316	 0.002	 0.017	 0.036	 500.0	 600.0	 625.0	 0.0	 0.0	 1	 -7.598157	 7.598157;
	315	 321	 0.006	 0.049	 0.103	 500.0	 600.0	 625.0	 0.0	 0.0	 1	 -7.598157	 7.598157;
	315	 321	 0.006	 0.049	 0.103	 500.0	 600.0	 625.0	 0.0	 0.0	 1	 -7.598157	 7.598157;
	315	 324	 0.007	 0.052	 0.109	 500.0	 600.0	 625.0	 0.0	 0.0	 1	 -7.598157	 7.598157;
	316	 317	 0.003	 0.026	 0.055	 500.0	 600.0	 625.0	 0.0	 0.0	 1	 -7.598157	 7.598157;
	316	 319	 0.003	 0.023	 0.049	 500.0	 600.0	 625.0	 0.0	 0.0	 1	 -7.598157	 7.598157;
	317	 318	 0.002	 0.014	 0.03	 500.0	 600.0	 625.0	 0.0	 0.0	 1	 -7.598157	 7.598157;
	317	 322	 0.014	 0.105	 0.221	 500.0	 600.0	 625.0	 0.0	 0.0	 1	 -7.598157	 7.598157;
	318	 321	 0.003	 0.026	 0.055	 500.0	 600.0	 625.0	 0.0	 0.0	 1	 -7.598157	 7.598157;
	318	 321	 0.003	 0.026	 0.055	 500.0	 600.0	 625.0	 0.0	 0.0	 1	 -7.598157	 7.598157;
	319	 320	 0.005	 0.04	 0.083	 500.0	 600.0	 625.0	 0.0	 0.0	 1	 -7.598157	 7.598157;
	319	 320	 0.005	 0.04	 0.083	 500.0	 600.0	 625.0	 0.0	 0.0	 1	 -7.598157	 7.598157;
	320	 323	 0.003	 0.022	 0.046	 500.0	 600.0	 625.0	 0.0	 0.0	 1	 -7.598157	 7.598157;
	320	 323	 0.003	 0.022	 0.046	 500.0	 600.0	 625.0	 0.0	 0.0	 1	 -7.598157	 7.598157;
	321	 322	 0.009	 0.068	 0.142	 500.0	 600.0	 625.0	 0.0	 0.0	 1	 -7.598157	 7.598157;
	325	 121	 0.012	 0.097	 0.203	 500.0	 600.0	 625.0	 0.0	 0.0	 1	 -7.598157	 7.598157;
	318	 223	 0.013	 0.104	 0.218	 500.0	 600.0	 625.0	 0.0	 0.0	 1	 -7.598157	 7.598157;
	323	 325	 0.0	 0.009	 0.0	 722.0	 893.0	 893.0	 0.0	 0.0	 1	 -7.598157	 7.598157;
];

% INFO    : === Translation Options ===
% INFO    : Phase Angle Bound:           7.598157 (deg.)
% INFO    : AC OPF Solution File:        ./nesta_case73_ieee_rts__sad.m.opf.sol
% INFO    : 
% INFO    : === Voltage Setpoint Replacement Notes ===
% INFO    : Bus 101	: V=1.04777, theta=-7.74149 -> V=1.03213, theta=-8.78097
% INFO    : Bus 102	: V=1.04782, theta=-7.81786 -> V=1.02722, theta=-8.74749
% INFO    : Bus 103	: V=1.01085, theta=-7.21088 -> V=1.00951, theta=-10.10248
% INFO    : Bus 104	: V=1.01765, theta=-10.56613 -> V=1.00955, theta=-11.59917
% INFO    : Bus 105	: V=1.03568, theta=-10.70885 -> V=1.02767, theta=-11.61109
% INFO    : Bus 106	: V=1.03242, theta=-13.27943 -> V=1.02732, theta=-14.07546
% INFO    : Bus 107	: V=1.03745, theta=-11.27674 -> V=1.05, theta=-5.82271
% INFO    : Bus 108	: V=1.01024, theta=-13.74966 -> V=1.0174, theta=-10.92837
% INFO    : Bus 109	: V=1.0261, theta=-8.81522 -> V=1.02858, theta=-9.86009
% INFO    : Bus 110	: V=1.05, theta=-10.62066 -> V=1.05, theta=-11.31447
% INFO    : Bus 111	: V=1.02764, theta=-3.91672 -> V=1.03359, theta=-5.32531
% INFO    : Bus 112	: V=1.02024, theta=-2.42423 -> V=1.02729, theta=-3.75934
% INFO    : Bus 113	: V=1.03943, theta=-0.0 -> V=1.05, theta=0.0
% INFO    : Bus 114	: V=1.04402, theta=-1.73059 -> V=1.05, theta=-4.95219
% INFO    : Bus 115	: V=1.04335, theta=7.95971 -> V=1.0439, theta=1.88794
% INFO    : Bus 116	: V=1.04565, theta=7.56927 -> V=1.04719, theta=1.78012
% INFO    : Bus 117	: V=1.04782, theta=11.43416 -> V=1.04829, theta=5.68238
% INFO    : Bus 118	: V=1.05, theta=12.52456 -> V=1.05, theta=6.79369
% INFO    : Bus 119	: V=1.03962, theta=6.65779 -> V=1.04046, theta=1.11405
% INFO    : Bus 120	: V=1.04399, theta=7.74058 -> V=1.04422, theta=2.40766
% INFO    : Bus 121	: V=1.05, theta=13.08653 -> V=1.05, theta=7.3721
% INFO    : Bus 122	: V=1.05, theta=18.94979 -> V=1.05, theta=13.2207
% INFO    : Bus 123	: V=1.05, theta=9.05618 -> V=1.05, theta=3.83882
% INFO    : Bus 124	: V=1.01155, theta=2.38338 -> V=1.01599, theta=-2.50432
% INFO    : Bus 201	: V=1.04841, theta=-10.68972 -> V=1.03452, theta=-5.52092
% INFO    : Bus 202	: V=1.04844, theta=-10.75906 -> V=1.03208, theta=-5.52619
% INFO    : Bus 203	: V=1.01886, theta=-10.47451 -> V=1.02247, theta=-6.67649
% INFO    : Bus 204	: V=1.0189, theta=-13.48477 -> V=1.01307, theta=-8.35239
% INFO    : Bus 205	: V=1.03603, theta=-13.61186 -> V=1.02889, theta=-8.38603
% INFO    : Bus 206	: V=1.03259, theta=-16.15672 -> V=1.02853, theta=-10.87546
% INFO    : Bus 207	: V=1.03973, theta=-13.46605 -> V=1.03798, theta=-1.24435
% INFO    : Bus 208	: V=1.01203, theta=-16.22358 -> V=1.01015, theta=-6.99036
% INFO    : Bus 209	: V=1.02781, theta=-11.72409 -> V=1.03087, theta=-6.62113
% INFO    : Bus 210	: V=1.05, theta=-13.47986 -> V=1.05, theta=-8.13532
% INFO    : Bus 211	: V=1.02735, theta=-6.93338 -> V=1.03438, theta=-2.36068
% INFO    : Bus 212	: V=1.01921, theta=-5.25332 -> V=1.02828, theta=-0.79173
% INFO    : Bus 213	: V=1.03752, theta=-3.21511 -> V=1.05, theta=2.71257
% INFO    : Bus 214	: V=1.04335, theta=-4.6852 -> V=1.05, theta=-1.99559
% INFO    : Bus 215	: V=1.04327, theta=4.63349 -> V=1.04763, theta=4.66409
% INFO    : Bus 216	: V=1.04556, theta=4.70011 -> V=1.04861, theta=4.70262
% INFO    : Bus 217	: V=1.04847, theta=8.81842 -> V=1.04452, theta=7.82512
% INFO    : Bus 218	: V=1.05, theta=9.99473 -> V=1.04083, theta=9.29285
% INFO    : Bus 219	: V=1.03946, theta=4.21233 -> V=1.04128, theta=4.05734
% INFO    : Bus 220	: V=1.0438, theta=5.66449 -> V=1.0445, theta=5.36632
% INFO    : Bus 221	: V=1.05, theta=10.63208 -> V=1.05, theta=10.09526
% INFO    : Bus 222	: V=1.05, theta=16.43201 -> V=1.05, theta=15.42328
% INFO    : Bus 223	: V=1.05, theta=7.1815 -> V=1.05, theta=6.80643
% INFO    : Bus 224	: V=1.01456, theta=-0.96007 -> V=1.02397, theta=0.4741
% INFO    : Bus 301	: V=1.0486, theta=-9.34819 -> V=1.03974, theta=-8.01552
% INFO    : Bus 302	: V=1.04864, theta=-9.43099 -> V=1.0341, theta=-7.97392
% INFO    : Bus 303	: V=1.01045, theta=-8.57688 -> V=1.01087, theta=-9.22015
% INFO    : Bus 304	: V=1.01785, theta=-12.18784 -> V=1.01229, theta=-10.73926
% INFO    : Bus 305	: V=1.03609, theta=-12.35006 -> V=1.03163, theta=-10.76263
% INFO    : Bus 306	: V=1.0326, theta=-14.94207 -> V=1.02908, theta=-13.18912
% INFO    : Bus 307	: V=1.03804, theta=-12.54794 -> V=1.03259, theta=-3.43299
% INFO    : Bus 308	: V=1.01056, theta=-15.18287 -> V=1.00622, theta=-9.25857
% INFO    : Bus 309	: V=1.02579, theta=-10.44616 -> V=1.02781, theta=-8.95423
% INFO    : Bus 310	: V=1.05, theta=-12.30116 -> V=1.05, theta=-10.41367
% INFO    : Bus 311	: V=1.0283, theta=-5.74067 -> V=1.03372, theta=-4.57339
% INFO    : Bus 312	: V=1.019, theta=-4.14602 -> V=1.02739, theta=-3.00362
% INFO    : Bus 313	: V=1.03802, theta=-2.41514 -> V=1.05, theta=0.59053
% INFO    : Bus 314	: V=1.04631, theta=-3.20793 -> V=1.05, theta=-4.209
% INFO    : Bus 315	: V=1.043, theta=7.0509 -> V=1.04347, theta=2.7823
% INFO    : Bus 316	: V=1.04558, theta=6.59877 -> V=1.04656, theta=2.5169
% INFO    : Bus 317	: V=1.04785, theta=10.3442 -> V=1.04798, theta=6.56257
% INFO    : Bus 318	: V=1.05, theta=11.34263 -> V=1.05, theta=7.74136
% INFO    : Bus 319	: V=1.03953, theta=5.91541 -> V=1.03995, theta=1.8576
% INFO    : Bus 320	: V=1.04389, theta=7.19709 -> V=1.04382, theta=3.15887
% INFO    : Bus 321	: V=1.05, theta=12.34121 -> V=1.05, theta=8.50092
% INFO    : Bus 322	: V=1.05, theta=18.06915 -> V=1.05, theta=14.16073
% INFO    : Bus 323	: V=1.05, theta=8.62114 -> V=1.04967, theta=4.59454
% INFO    : Bus 324	: V=1.01046, theta=1.30608 -> V=1.01622, theta=-1.62199
% INFO    : Bus 325	: V=1.04986, theta=8.99331 -> V=1.05, theta=4.82653
% INFO    : 
% INFO    : === Generator Setpoint Replacement Notes ===
% INFO    : Gen at bus 101	: Pg=16.0, Qg=4.88 -> Pg=16.0, Qg=5.217
% INFO    : Gen at bus 101	: Vg=1.04777 -> Vg=1.03213
% INFO    : Gen at bus 101	: Pg=16.0, Qg=4.88 -> Pg=16.0, Qg=5.217
% INFO    : Gen at bus 101	: Vg=1.04777 -> Vg=1.03213
% INFO    : Gen at bus 101	: Pg=76.0, Qg=-1.077 -> Pg=76.0, Qg=8.743
% INFO    : Gen at bus 101	: Vg=1.04777 -> Vg=1.03213
% INFO    : Gen at bus 101	: Pg=76.0, Qg=-1.077 -> Pg=76.0, Qg=8.743
% INFO    : Gen at bus 101	: Vg=1.04777 -> Vg=1.03213
% INFO    : Gen at bus 102	: Pg=16.0, Qg=4.82 -> Pg=16.0, Qg=0.0
% INFO    : Gen at bus 102	: Vg=1.04782 -> Vg=1.02722
% INFO    : Gen at bus 102	: Pg=16.0, Qg=4.82 -> Pg=16.0, Qg=0.0
% INFO    : Gen at bus 102	: Vg=1.04782 -> Vg=1.02722
% INFO    : Gen at bus 102	: Pg=76.0, Qg=-2.741 -> Pg=76.0, Qg=-25.0
% INFO    : Gen at bus 102	: Vg=1.04782 -> Vg=1.02722
% INFO    : Gen at bus 102	: Pg=76.0, Qg=-2.741 -> Pg=76.0, Qg=-25.0
% INFO    : Gen at bus 102	: Vg=1.04782 -> Vg=1.02722
% INFO    : Gen at bus 107	: Pg=66.816, Qg=20.616 -> Pg=100.0, Qg=18.948
% INFO    : Gen at bus 107	: Vg=1.03745 -> Vg=1.05
% INFO    : Gen at bus 107	: Pg=66.816, Qg=20.616 -> Pg=100.0, Qg=18.948
% INFO    : Gen at bus 107	: Vg=1.03745 -> Vg=1.05
% INFO    : Gen at bus 107	: Pg=66.816, Qg=20.616 -> Pg=100.0, Qg=18.948
% INFO    : Gen at bus 107	: Vg=1.03745 -> Vg=1.05
% INFO    : Gen at bus 113	: Pg=69.0, Qg=36.655 -> Pg=143.251, Qg=38.637
% INFO    : Gen at bus 113	: Vg=1.03943 -> Vg=1.05
% INFO    : Gen at bus 113	: Pg=69.0, Qg=36.655 -> Pg=143.251, Qg=38.637
% INFO    : Gen at bus 113	: Vg=1.03943 -> Vg=1.05
% INFO    : Gen at bus 113	: Pg=69.0, Qg=36.655 -> Pg=143.251, Qg=38.637
% INFO    : Gen at bus 113	: Vg=1.03943 -> Vg=1.05
% INFO    : Gen at bus 114	: Pg=0.0, Qg=106.688 -> Pg=0.0, Qg=104.282
% INFO    : Gen at bus 114	: Vg=1.04402 -> Vg=1.05
% INFO    : Gen at bus 115	: Pg=2.4, Qg=6.0 -> Pg=2.4, Qg=6.0
% INFO    : Gen at bus 115	: Vg=1.04335 -> Vg=1.0439
% INFO    : Gen at bus 115	: Pg=2.4, Qg=6.0 -> Pg=2.4, Qg=6.0
% INFO    : Gen at bus 115	: Vg=1.04335 -> Vg=1.0439
% INFO    : Gen at bus 115	: Pg=2.4, Qg=6.0 -> Pg=2.4, Qg=6.0
% INFO    : Gen at bus 115	: Vg=1.04335 -> Vg=1.0439
% INFO    : Gen at bus 115	: Pg=2.4, Qg=6.0 -> Pg=2.4, Qg=6.0
% INFO    : Gen at bus 115	: Vg=1.04335 -> Vg=1.0439
% INFO    : Gen at bus 115	: Pg=2.4, Qg=6.0 -> Pg=2.4, Qg=6.0
% INFO    : Gen at bus 115	: Vg=1.04335 -> Vg=1.0439
% INFO    : Gen at bus 115	: Pg=155.0, Qg=80.0 -> Pg=54.3, Qg=80.0
% INFO    : Gen at bus 115	: Vg=1.04335 -> Vg=1.0439
% INFO    : Gen at bus 116	: Pg=155.0, Qg=80.0 -> Pg=83.16, Qg=80.0
% INFO    : Gen at bus 116	: Vg=1.04565 -> Vg=1.04719
% INFO    : Gen at bus 118	: Pg=400.0, Qg=66.602 -> Pg=400.0, Qg=63.133
% INFO    : Gen at bus 118	: Vg=1.05 -> Vg=1.05
% INFO    : Gen at bus 121	: Pg=400.0, Qg=-25.009 -> Pg=400.0, Qg=-26.677
% INFO    : Gen at bus 121	: Vg=1.05 -> Vg=1.05
% INFO    : Gen at bus 122	: Pg=50.0, Qg=-6.699 -> Pg=50.0, Qg=-6.773
% INFO    : Gen at bus 122	: Vg=1.05 -> Vg=1.05
% INFO    : Gen at bus 122	: Pg=50.0, Qg=-6.699 -> Pg=50.0, Qg=-6.773
% INFO    : Gen at bus 122	: Vg=1.05 -> Vg=1.05
% INFO    : Gen at bus 122	: Pg=50.0, Qg=-6.699 -> Pg=50.0, Qg=-6.773
% INFO    : Gen at bus 122	: Vg=1.05 -> Vg=1.05
% INFO    : Gen at bus 122	: Pg=50.0, Qg=-6.699 -> Pg=50.0, Qg=-6.773
% INFO    : Gen at bus 122	: Vg=1.05 -> Vg=1.05
% INFO    : Gen at bus 122	: Pg=50.0, Qg=-6.699 -> Pg=50.0, Qg=-6.773
% INFO    : Gen at bus 122	: Vg=1.05 -> Vg=1.05
% INFO    : Gen at bus 122	: Pg=50.0, Qg=-6.699 -> Pg=50.0, Qg=-6.773
% INFO    : Gen at bus 122	: Vg=1.05 -> Vg=1.05
% INFO    : Gen at bus 123	: Pg=155.0, Qg=-3.225 -> Pg=89.186, Qg=-3.989
% INFO    : Gen at bus 123	: Vg=1.05 -> Vg=1.05
% INFO    : Gen at bus 123	: Pg=155.0, Qg=-3.225 -> Pg=89.186, Qg=-3.989
% INFO    : Gen at bus 123	: Vg=1.05 -> Vg=1.05
% INFO    : Gen at bus 123	: Pg=350.0, Qg=31.244 -> Pg=207.026, Qg=30.052
% INFO    : Gen at bus 123	: Vg=1.05 -> Vg=1.05
% INFO    : Gen at bus 201	: Pg=16.0, Qg=4.824 -> Pg=16.0, Qg=4.852
% INFO    : Gen at bus 201	: Vg=1.04841 -> Vg=1.03452
% INFO    : Gen at bus 201	: Pg=16.0, Qg=4.824 -> Pg=16.0, Qg=4.852
% INFO    : Gen at bus 201	: Vg=1.04841 -> Vg=1.03452
% INFO    : Gen at bus 201	: Pg=76.0, Qg=-2.64 -> Pg=76.0, Qg=-1.854
% INFO    : Gen at bus 201	: Vg=1.04841 -> Vg=1.03452
% INFO    : Gen at bus 201	: Pg=76.0, Qg=-2.64 -> Pg=76.0, Qg=-1.854
% INFO    : Gen at bus 201	: Vg=1.04841 -> Vg=1.03452
% INFO    : Gen at bus 202	: Pg=16.0, Qg=4.811 -> Pg=16.0, Qg=3.564
% INFO    : Gen at bus 202	: Vg=1.04844 -> Vg=1.03208
% INFO    : Gen at bus 202	: Pg=16.0, Qg=4.811 -> Pg=16.0, Qg=3.564
% INFO    : Gen at bus 202	: Vg=1.04844 -> Vg=1.03208
% INFO    : Gen at bus 202	: Pg=76.0, Qg=-2.989 -> Pg=76.0, Qg=-18.15
% INFO    : Gen at bus 202	: Vg=1.04844 -> Vg=1.03208
% INFO    : Gen at bus 202	: Pg=76.0, Qg=-2.989 -> Pg=76.0, Qg=-18.15
% INFO    : Gen at bus 202	: Vg=1.04844 -> Vg=1.03208
% INFO    : Gen at bus 207	: Pg=71.574, Qg=16.584 -> Pg=99.919, Qg=11.414
% INFO    : Gen at bus 207	: Vg=1.03973 -> Vg=1.03798
% INFO    : Gen at bus 207	: Pg=71.574, Qg=16.584 -> Pg=99.919, Qg=11.414
% INFO    : Gen at bus 207	: Vg=1.03973 -> Vg=1.03798
% INFO    : Gen at bus 207	: Pg=71.574, Qg=16.584 -> Pg=99.919, Qg=11.414
% INFO    : Gen at bus 207	: Vg=1.03973 -> Vg=1.03798
% INFO    : Gen at bus 213	: Pg=90.186, Qg=35.467 -> Pg=173.468, Qg=33.042
% INFO    : Gen at bus 213	: Vg=1.03752 -> Vg=1.05
% INFO    : Gen at bus 213	: Pg=90.186, Qg=35.467 -> Pg=173.468, Qg=33.042
% INFO    : Gen at bus 213	: Vg=1.03752 -> Vg=1.05
% INFO    : Gen at bus 213	: Pg=90.186, Qg=35.467 -> Pg=173.468, Qg=33.042
% INFO    : Gen at bus 213	: Vg=1.03752 -> Vg=1.05
% INFO    : Gen at bus 214	: Pg=0.0, Qg=105.2 -> Pg=0.0, Qg=99.668
% INFO    : Gen at bus 214	: Vg=1.04335 -> Vg=1.05
% INFO    : Gen at bus 215	: Pg=2.4, Qg=6.0 -> Pg=2.4, Qg=6.0
% INFO    : Gen at bus 215	: Vg=1.04327 -> Vg=1.04763
% INFO    : Gen at bus 215	: Pg=2.4, Qg=6.0 -> Pg=2.4, Qg=6.0
% INFO    : Gen at bus 215	: Vg=1.04327 -> Vg=1.04763
% INFO    : Gen at bus 215	: Pg=2.4, Qg=6.0 -> Pg=2.4, Qg=6.0
% INFO    : Gen at bus 215	: Vg=1.04327 -> Vg=1.04763
% INFO    : Gen at bus 215	: Pg=2.4, Qg=6.0 -> Pg=2.4, Qg=6.0
% INFO    : Gen at bus 215	: Vg=1.04327 -> Vg=1.04763
% INFO    : Gen at bus 215	: Pg=2.4, Qg=6.0 -> Pg=2.4, Qg=6.0
% INFO    : Gen at bus 215	: Vg=1.04327 -> Vg=1.04763
% INFO    : Gen at bus 215	: Pg=155.0, Qg=80.0 -> Pg=155.0, Qg=80.0
% INFO    : Gen at bus 215	: Vg=1.04327 -> Vg=1.04763
% INFO    : Gen at bus 216	: Pg=155.0, Qg=80.0 -> Pg=155.0, Qg=80.0
% INFO    : Gen at bus 216	: Vg=1.04556 -> Vg=1.04861
% INFO    : Gen at bus 218	: Pg=400.0, Qg=61.795 -> Pg=400.0, Qg=-50.0
% INFO    : Gen at bus 218	: Vg=1.05 -> Vg=1.04083
% INFO    : Gen at bus 221	: Pg=400.0, Qg=-9.833 -> Pg=400.0, Qg=40.274
% INFO    : Gen at bus 221	: Vg=1.05 -> Vg=1.05
% INFO    : Gen at bus 222	: Pg=50.0, Qg=-6.797 -> Pg=47.748, Qg=-6.068
% INFO    : Gen at bus 222	: Vg=1.05 -> Vg=1.05
% INFO    : Gen at bus 222	: Pg=50.0, Qg=-6.797 -> Pg=47.748, Qg=-6.068
% INFO    : Gen at bus 222	: Vg=1.05 -> Vg=1.05
% INFO    : Gen at bus 222	: Pg=50.0, Qg=-6.797 -> Pg=47.748, Qg=-6.068
% INFO    : Gen at bus 222	: Vg=1.05 -> Vg=1.05
% INFO    : Gen at bus 222	: Pg=50.0, Qg=-6.797 -> Pg=47.748, Qg=-6.068
% INFO    : Gen at bus 222	: Vg=1.05 -> Vg=1.05
% INFO    : Gen at bus 222	: Pg=50.0, Qg=-6.797 -> Pg=47.748, Qg=-6.068
% INFO    : Gen at bus 222	: Vg=1.05 -> Vg=1.05
% INFO    : Gen at bus 222	: Pg=50.0, Qg=-6.797 -> Pg=47.748, Qg=-6.068
% INFO    : Gen at bus 222	: Vg=1.05 -> Vg=1.05
% INFO    : Gen at bus 223	: Pg=155.0, Qg=0.029 -> Pg=113.347, Qg=-12.769
% INFO    : Gen at bus 223	: Vg=1.05 -> Vg=1.05
% INFO    : Gen at bus 223	: Pg=155.0, Qg=0.029 -> Pg=113.347, Qg=-12.769
% INFO    : Gen at bus 223	: Vg=1.05 -> Vg=1.05
% INFO    : Gen at bus 223	: Pg=350.0, Qg=36.403 -> Pg=248.2, Qg=17.341
% INFO    : Gen at bus 223	: Vg=1.05 -> Vg=1.05
% INFO    : Gen at bus 301	: Pg=16.0, Qg=4.902 -> Pg=16.0, Qg=5.509
% INFO    : Gen at bus 301	: Vg=1.0486 -> Vg=1.03974
% INFO    : Gen at bus 301	: Pg=16.0, Qg=4.902 -> Pg=16.0, Qg=5.509
% INFO    : Gen at bus 301	: Vg=1.0486 -> Vg=1.03974
% INFO    : Gen at bus 301	: Pg=76.0, Qg=-0.426 -> Pg=76.0, Qg=14.898
% INFO    : Gen at bus 301	: Vg=1.0486 -> Vg=1.03974
% INFO    : Gen at bus 301	: Pg=76.0, Qg=-0.426 -> Pg=76.0, Qg=14.898
% INFO    : Gen at bus 301	: Vg=1.0486 -> Vg=1.03974
% INFO    : Gen at bus 302	: Pg=16.0, Qg=4.833 -> Pg=16.0, Qg=0.005
% INFO    : Gen at bus 302	: Vg=1.04864 -> Vg=1.0341
% INFO    : Gen at bus 302	: Pg=16.0, Qg=4.833 -> Pg=16.0, Qg=0.005
% INFO    : Gen at bus 302	: Vg=1.04864 -> Vg=1.0341
% INFO    : Gen at bus 302	: Pg=76.0, Qg=-2.394 -> Pg=76.0, Qg=-24.995
% INFO    : Gen at bus 302	: Vg=1.04864 -> Vg=1.0341
% INFO    : Gen at bus 302	: Pg=76.0, Qg=-2.394 -> Pg=76.0, Qg=-24.995
% INFO    : Gen at bus 302	: Vg=1.04864 -> Vg=1.0341
% INFO    : Gen at bus 307	: Pg=70.297, Qg=16.714 -> Pg=99.958, Qg=10.556
% INFO    : Gen at bus 307	: Vg=1.03804 -> Vg=1.03259
% INFO    : Gen at bus 307	: Pg=70.297, Qg=16.714 -> Pg=99.958, Qg=10.556
% INFO    : Gen at bus 307	: Vg=1.03804 -> Vg=1.03259
% INFO    : Gen at bus 307	: Pg=70.297, Qg=16.714 -> Pg=99.958, Qg=10.556
% INFO    : Gen at bus 307	: Vg=1.03804 -> Vg=1.03259
% INFO    : Gen at bus 313	: Pg=76.947, Qg=37.941 -> Pg=176.542, Qg=34.05
% INFO    : Gen at bus 313	: Vg=1.03802 -> Vg=1.05
% INFO    : Gen at bus 313	: Pg=76.947, Qg=37.941 -> Pg=176.542, Qg=34.05
% INFO    : Gen at bus 313	: Vg=1.03802 -> Vg=1.05
% INFO    : Gen at bus 313	: Pg=76.947, Qg=37.941 -> Pg=176.542, Qg=34.05
% INFO    : Gen at bus 313	: Vg=1.03802 -> Vg=1.05
% INFO    : Gen at bus 314	: Pg=0.0, Qg=117.87 -> Pg=0.0, Qg=105.044
% INFO    : Gen at bus 314	: Vg=1.04631 -> Vg=1.05
% INFO    : Gen at bus 315	: Pg=2.4, Qg=6.0 -> Pg=2.4, Qg=6.0
% INFO    : Gen at bus 315	: Vg=1.043 -> Vg=1.04347
% INFO    : Gen at bus 315	: Pg=2.4, Qg=6.0 -> Pg=2.4, Qg=6.0
% INFO    : Gen at bus 315	: Vg=1.043 -> Vg=1.04347
% INFO    : Gen at bus 315	: Pg=2.4, Qg=6.0 -> Pg=2.4, Qg=6.0
% INFO    : Gen at bus 315	: Vg=1.043 -> Vg=1.04347
% INFO    : Gen at bus 315	: Pg=2.4, Qg=6.0 -> Pg=2.4, Qg=6.0
% INFO    : Gen at bus 315	: Vg=1.043 -> Vg=1.04347
% INFO    : Gen at bus 315	: Pg=2.4, Qg=6.0 -> Pg=2.4, Qg=6.0
% INFO    : Gen at bus 315	: Vg=1.043 -> Vg=1.04347
% INFO    : Gen at bus 315	: Pg=155.0, Qg=80.0 -> Pg=54.3, Qg=80.0
% INFO    : Gen at bus 315	: Vg=1.043 -> Vg=1.04347
% INFO    : Gen at bus 316	: Pg=155.0, Qg=80.0 -> Pg=54.3, Qg=80.0
% INFO    : Gen at bus 316	: Vg=1.04558 -> Vg=1.04656
% INFO    : Gen at bus 318	: Pg=400.0, Qg=57.471 -> Pg=400.0, Qg=53.639
% INFO    : Gen at bus 318	: Vg=1.05 -> Vg=1.05
% INFO    : Gen at bus 321	: Pg=400.0, Qg=-13.198 -> Pg=400.0, Qg=-13.012
% INFO    : Gen at bus 321	: Vg=1.05 -> Vg=1.05
% INFO    : Gen at bus 322	: Pg=50.0, Qg=-6.683 -> Pg=49.299, Qg=-6.695
% INFO    : Gen at bus 322	: Vg=1.05 -> Vg=1.05
% INFO    : Gen at bus 322	: Pg=50.0, Qg=-6.683 -> Pg=49.299, Qg=-6.695
% INFO    : Gen at bus 322	: Vg=1.05 -> Vg=1.05
% INFO    : Gen at bus 322	: Pg=50.0, Qg=-6.683 -> Pg=49.299, Qg=-6.695
% INFO    : Gen at bus 322	: Vg=1.05 -> Vg=1.05
% INFO    : Gen at bus 322	: Pg=50.0, Qg=-6.683 -> Pg=49.299, Qg=-6.695
% INFO    : Gen at bus 322	: Vg=1.05 -> Vg=1.05
% INFO    : Gen at bus 322	: Pg=50.0, Qg=-6.683 -> Pg=49.299, Qg=-6.695
% INFO    : Gen at bus 322	: Vg=1.05 -> Vg=1.05
% INFO    : Gen at bus 322	: Pg=50.0, Qg=-6.683 -> Pg=49.299, Qg=-6.695
% INFO    : Gen at bus 322	: Vg=1.05 -> Vg=1.05
% INFO    : Gen at bus 323	: Pg=155.0, Qg=1.045 -> Pg=103.828, Qg=-9.889
% INFO    : Gen at bus 323	: Vg=1.05 -> Vg=1.04967
% INFO    : Gen at bus 323	: Pg=155.0, Qg=1.045 -> Pg=103.828, Qg=-9.889
% INFO    : Gen at bus 323	: Vg=1.05 -> Vg=1.04967
% INFO    : Gen at bus 323	: Pg=350.0, Qg=38.06 -> Pg=231.978, Qg=21.342
% INFO    : Gen at bus 323	: Vg=1.05 -> Vg=1.04967
% INFO    : 
% INFO    : === Writing Matpower Case File Notes ===
